Version 4
SHEET 1 880 680
WIRE 240 -160 -16 -160
WIRE 416 -160 240 -160
WIRE 416 -144 416 -160
WIRE 240 -32 240 -160
WIRE 416 -16 416 -64
WIRE 416 -16 288 -16
WIRE 240 96 240 64
WIRE -16 144 -16 -160
WIRE 416 160 416 -16
WIRE 240 240 240 176
FLAG 240 240 0
FLAG -16 224 0
FLAG 416 240 0
SYMBOL voltage -16 128 R0
WINDOW 123 0 0 Left 0
WINDOW 39 0 0 Left 0
SYMATTR InstName 5V
SYMATTR Value 5
SYMBOL voltage 416 144 R0
SYMATTR InstName GPIO
SYMATTR Value 3.3
SYMBOL res 224 80 R0
SYMATTR InstName TransPump
SYMATTR Value 100
SYMBOL pmos 288 64 R180
SYMATTR InstName M1
SYMATTR Value AONR21305C
SYMBOL res 400 -160 R0
SYMATTR InstName R1
SYMATTR Value 10k
TEXT -48 264 Left 2 !.tran 1
